*  Generated for: FineSimProVCS
*  Design library name: basic_cells
*  Design cell name: test_complex_mixta
*  Design view name: config

.option finesim_output=fsdb finesim_merge_fsdb=1


.temp 25
.lib '/mnt/vol_NFS_rh003/Est_VLSI_I_2024/Quiros_Rodriguez_I_2024_vlsi/tutorial/Hspice/lp5mos/xt018.lib' tm
.lib '/mnt/vol_NFS_rh003/Est_VLSI_I_2024/Quiros_Rodriguez_I_2024_vlsi/tutorial/Hspice/lp5mos/param.lib' 3s
.lib '/mnt/vol_NFS_rh003/Est_VLSI_I_2024/Quiros_Rodriguez_I_2024_vlsi/tutorial/Hspice/lp5mos/config.lib' default

*Custom Compiler Version U-2023.03-SP2
*Sun Apr 28 22:52:29 2024

.global gnd vdd_
********************************************************************************
* Library          : basic_cells
* Cell             : complex
* View             : starrc_C_RC
* View Search List : schematic veriloga hspice symbol
* View Stop List   : symbol
********************************************************************************
.subckt complex a b c d q
cg11_5 n_4 gnd  c=7.53873e-16
c11_4 n_4 b  c=3.36153e-16
c11_3 n_4 a  c=1.46419e-16
c11_2 n_4 c  c=7.68275e-17
c11_1 n_4 q  c=2.20802e-16
cg7_2 b gnd  c=3.00695e-16
c7_1 b a  c=2.27903e-16
cg6_2 a gnd  c=2.95879e-16
c6_1 a c  c=1.94455e-16
cg5_2 c gnd  c=3.3874e-16
c5_1 c d  c=1.34912e-16
cg4_1 d gnd  c=5.06874e-16
cg3_1 q gnd  c=1.993e-16
x5 gnd d n_6 gnd ne w=0.42u l=0.21u as=0.3429p ad=0.1134p ps=2.92u pd=0.96u nrs=-1
+ nrd=-1 m='1*1' par1='1*1' xf_subext=0
x4 gnd c n_6 gnd ne w=0.42u l=0.21u as=0.3429p ad=0.1134p ps=2.92u pd=0.96u nrs=-1
+ nrd=-1 m='1*1' par1='1*1' xf_subext=0
x3 n_4 a n_6 gnd ne w=0.42u l=0.21u as=0.3429p ad=0.1134p ps=2.92u pd=0.96u nrs=-1
+ nrd=-1 m='1*1' par1='1*1' xf_subext=0
x2 n_4 b n_6 gnd ne w=0.42u l=0.21u as=0.3429p ad=0.1134p ps=2.92u pd=0.96u nrs=-1
+ nrd=-1 m='1*1' par1='1*1' xf_subext=0
x1 q n_4 gnd gnd ne w=0.42u l=0.21u as=0.2912p ad=0.2016p ps=2.21u pd=1.8u nrs=-1
+ nrd=-1 m='1*1' par1='1*1' xf_subext=0
x9 n_12 a n_4 vdd_ pe w=0.72u l=0.21u as=0.21015p ad=0.09p ps=1.365u pd=0.97u
+ nrs=-1 nrd=-1 m='1*1' par1='1*1' xf_subext=0
x8 vdd_ b n_12 vdd_ pe w=0.72u l=0.21u as=0.09p ad=0.677737p ps=0.97u pd=2.58u
+ nrs=-1 nrd=-1 m='1*1' par1='1*1' xf_subext=0
x7 q n_4 vdd_ vdd_ pe w=0.72u l=0.21u as=0.677737p ad=0.3456p ps=2.58u pd=2.4u
+ nrs=-1 nrd=-1 m='1*1' par1='1*1' xf_subext=0
x11 n_11 d vdd_ vdd_ pe w=0.72u l=0.21u as=0.7482p ad=0.09p ps=4.26u pd=0.97u
+ nrs=-1 nrd=-1 m='1*1' par1='1*1' xf_subext=0
x10 n_4 c n_11 vdd_ pe w=0.72u l=0.21u as=0.09p ad=0.21015p ps=0.97u pd=1.365u
+ nrs=-1 nrd=-1 m='1*1' par1='1*1' xf_subext=0
.ends complex

********************************************************************************
* Library          : basic_cells
* Cell             : test_complex_mixta
* View             : schematic
* View Search List : schematic veriloga hspice symbol
* View Stop List   : symbol
********************************************************************************
xi0 a b c d out complex
v20 d gnd dc=0 pulse ( 0 01.8 0 100p 100p 0.3n 0.8n )
v19 c gnd dc=0 pulse ( 0 01.8 0 100p 100p 0.3n 0.8n )
v18 b gnd dc=0 pulse ( 0 01.8 0 100p 100p 0.3n 0.8n )
v7 a gnd dc=0 pulse ( 0 01.8 0 100p 100p 0.3n 0.8n )
v5 vdd_ gnd dc=1.8
c6 out gnd c=5f






.tran 10p 15n

.option PARHIER = LOCAL
.option finesim_mode = spicead
.option s_elem_cache_dir = "/home/Quiros_Rodriguez_I_2024_vlsi/.synopsys_custom/sparam_dir"
.option pva_output_dir = "/home/Quiros_Rodriguez_I_2024_vlsi/.synopsys_custom/pva_dir"

.print P(v5)
.measure pwr AVG P(v5) FROM=0ns TO=15ns


.end

